** Contact analysis - hertz contact problem
** Sphere indenting into flat surface
*HEADING
Hertz contact - sphere on plate
*NODE
** Sphere nodes
1, 0.0, 0.0, 10.0
2, 5.0, 0.0, 10.0
3, 7.071, 0.0, 7.929
4, 8.66, 0.0, 5.0
5, 9.659, 0.0, 1.710
6, 10.0, 0.0, 0.0
** Plate nodes
11, 0.0, 0.0, 0.0
12, 2.0, 0.0, 0.0
13, 4.0, 0.0, 0.0
14, 6.0, 0.0, 0.0
15, 8.0, 0.0, 0.0
16, 10.0, 0.0, 0.0
21, 0.0, 0.0, -5.0
22, 2.0, 0.0, -5.0
23, 4.0, 0.0, -5.0
24, 6.0, 0.0, -5.0
25, 8.0, 0.0, -5.0
26, 10.0, 0.0, -5.0
*ELEMENT, TYPE=CAX4, ELSET=SPHERE
1, 1, 2, 2, 1
2, 2, 3, 3, 2
3, 3, 4, 4, 3
4, 4, 5, 5, 4
5, 5, 6, 6, 5
*ELEMENT, TYPE=CAX4, ELSET=PLATE
11, 11, 12, 22, 21
12, 12, 13, 23, 22
13, 13, 14, 24, 23
14, 14, 15, 25, 24
15, 15, 16, 26, 25
*NSET, NSET=SPHERE_TOP
1
*NSET, NSET=SPHERE_CONTACT
6, 5, 4, 3
*NSET, NSET=PLATE_CONTACT
11, 12, 13, 14, 15, 16
*NSET, NSET=PLATE_BOTTOM
21, 22, 23, 24, 25, 26
*NSET, NSET=AXIS_SPHERE
1, 2, 3, 4, 5, 6
*NSET, NSET=AXIS_PLATE
11, 12, 13, 14, 15, 16, 21, 22, 23, 24, 25, 26
*SURFACE, NAME=SPHERE_SURF, TYPE=NODE
SPHERE_CONTACT
*SURFACE, NAME=PLATE_SURF, TYPE=NODE
PLATE_CONTACT
*MATERIAL, NAME=STEEL_SPHERE
*ELASTIC
210000.0, 0.3
*MATERIAL, NAME=STEEL_PLATE
*ELASTIC
210000.0, 0.3
*SOLID SECTION, ELSET=SPHERE, MATERIAL=STEEL_SPHERE
*SOLID SECTION, ELSET=PLATE, MATERIAL=STEEL_PLATE
*STEP, NAME=CONTACT_STEP, NLGEOM=YES, INC=50
*STATIC
0.1, 1.0, 1.0E-5, 0.2
*BOUNDARY
PLATE_BOTTOM, 2, 2
AXIS_SPHERE, 1, 1
AXIS_PLATE, 1, 1
SPHERE_TOP, 2, 2, -0.5
*CONTACT PAIR, INTERACTION=HERTZ_INT, TYPE=NODE TO SURFACE
SPHERE_SURF, PLATE_SURF
*SURFACE INTERACTION, NAME=HERTZ_INT
*FRICTION
0.1
*SURFACE BEHAVIOR, PRESSURE-OVERCLOSURE=LINEAR
1.0E6
*OUTPUT, FIELD
*NODE OUTPUT
U, RF
*ELEMENT OUTPUT
S, E
*CONTACT OUTPUT
CSTRESS, CDISP
*OUTPUT, HISTORY
*CONTACT OUTPUT, CONTACT PAIR=HERTZ_INT
CSTRESS, CDISP, CFN, CFS
*END STEP
