** Shell box under compression with plastic material
** From CalculiX Examples
*NODE
1, 0, 0, 0
2, 100, 0, 0
3, 100, 100, 0
4, 0, 100, 0
5, 0, 0, 100
6, 100, 0, 100
7, 100, 100, 100
8, 0, 100, 100
*ELEMENT, TYPE=S4, ELSET=BOTTOM
1, 1, 2, 3, 4
*ELEMENT, TYPE=S4, ELSET=TOP
2, 5, 8, 7, 6
*ELEMENT, TYPE=S4, ELSET=SIDE1
3, 1, 5, 6, 2
*ELEMENT, TYPE=S4, ELSET=SIDE2
4, 2, 6, 7, 3
*ELEMENT, TYPE=S4, ELSET=SIDE3
5, 3, 7, 8, 4
*ELEMENT, TYPE=S4, ELSET=SIDE4
6, 4, 8, 5, 1
*NSET,NSET=NLOWER
1, 2, 3, 4
*NSET,NSET=NUPPER
5, 6, 7, 8
*ELSET,ELSET=EALL
BOTTOM, TOP, SIDE1, SIDE2, SIDE3, SIDE4
*BOUNDARY
NLOWER,1,6
NUPPER,1,6
*MATERIAL,NAME=STEEL
*ELASTIC
210000,.3
*PLASTIC
100,0
200,0.3
300,1
*DENSITY
7.8E-9
*SHELL SECTION,ELSET=EALL,MATERIAL=STEEL,OFFSET=0
1
*STEP,NLGEOM
*STATIC
*DLOAD
EALL,P,0.1
*EL FILE
S
*NODE FILE
U
*END STEP
*STEP,NLGEOM
*STATIC
0.05,1,,0.05
*BOUNDARY
NUPPER,3,3,-10.0
*EL FILE
S,PEEQ
*NODE FILE
U
*NODE PRINT,TOTALS=ONLY,NSET=NUPPER
U,RF
*END STEP
