** Tensile test specimen with elastic-plastic material
** Axisymmetric model with contact
*HEADING
Tensile test simulation
*NODE
1, 0.0, 0.0
2, 0.5, 0.0
3, 1.0, 0.0
4, 0.0, 5.0
5, 0.5, 5.0
6, 1.0, 5.0
7, 0.0, 10.0
8, 0.5, 10.0
9, 1.0, 10.0
10, 0.0, 15.0
11, 0.5, 15.0
12, 1.0, 15.0
*ELEMENT, TYPE=CAX4, ELSET=SPECIMEN
1, 1, 2, 5, 4
2, 2, 3, 6, 5
3, 4, 5, 8, 7
4, 5, 6, 9, 8
5, 7, 8, 11, 10
6, 8, 9, 12, 11
*NSET,NSET=BOTTOM
1, 2, 3
*NSET,NSET=TOP
10, 11, 12
*NSET,NSET=AXIS
1, 4, 7, 10
*MATERIAL,NAME=ALUMINUM
*ELASTIC
70000, 0.33
*PLASTIC
200, 0.0
220, 0.05
250, 0.15
280, 0.30
*DENSITY
2700.0
*EXPANSION
23.0E-6
*SOLID SECTION, ELSET=SPECIMEN, MATERIAL=ALUMINUM
*INITIAL CONDITIONS, TYPE=TEMPERATURE
SPECIMEN, 20.0
*AMPLITUDE, NAME=RAMP
0.0, 0.0
1.0, 1.0
*STEP, NAME=TENSION_TEST, NLGEOM=YES, INC=100
*STATIC
0.01, 1.0, 1.0E-6, 0.1
*BOUNDARY
BOTTOM, 2, 2
AXIS, 1, 1
*BOUNDARY, AMPLITUDE=RAMP
TOP, 2, 2, 5.0
*OUTPUT, FIELD, FREQUENCY=10
*ELEMENT OUTPUT
S, E, PE, PEEQ
*NODE OUTPUT
U, RF
*OUTPUT, HISTORY, FREQUENCY=1
*NODE OUTPUT, NSET=TOP
U2, RF2
*ELEMENT OUTPUT, ELSET=SPECIMEN
S, PEEQ
*END STEP
