** Thermal analysis - transient heat conduction
** 1D bar with time-dependent boundary conditions
*HEADING
Steady state heat conduction
*NODE
1, 0.0, 0.0, 0.0
2, 10.0, 0.0, 0.0
3, 20.0, 0.0, 0.0
4, 30.0, 0.0, 0.0
5, 40.0, 0.0, 0.0
6, 50.0, 0.0, 0.0
*ELEMENT, TYPE=DC3D8, ELSET=BAR
1, 1, 2, 2, 1, 1, 2, 2, 1
2, 2, 3, 3, 2, 2, 3, 3, 2
3, 3, 4, 4, 3, 3, 4, 4, 3
4, 4, 5, 5, 4, 4, 5, 5, 4
5, 5, 6, 6, 5, 5, 6, 6, 5
*NSET, NSET=LEFT
1
*NSET, NSET=RIGHT
6
*NSET, NSET=ALL_NODES
1, 2, 3, 4, 5, 6
*MATERIAL, NAME=COPPER
*CONDUCTIVITY
400.0
*SPECIFIC HEAT
385.0
*DENSITY
8960.0
*SOLID SECTION, ELSET=BAR, MATERIAL=COPPER
*INITIAL CONDITIONS, TYPE=TEMPERATURE
ALL_NODES, 20.0
*AMPLITUDE, NAME=TEMP_RAMP, TIME=TOTAL TIME
0.0, 100.0
10.0, 100.0
*STEP, NAME=HEATING, INC=100
*HEAT TRANSFER, STEADY STATE
1.0, 1.0
*BOUNDARY
LEFT, 11, 11, 100.0
RIGHT, 11, 11, 20.0
*NODE FILE
NT
*EL FILE
HFL
*END STEP
