** =====================================================================
** ABAQUS Input File: Cantilever Beam Bending
** =====================================================================
** Demonstrates:
** - 3D solid elements (C3D8)
** - Contact surfaces
** - Amplitude definitions
** - Multiple load cases
** =====================================================================
*HEADING
3D Cantilever beam under tip load
**
** PART: Beam
**
*NODE
1, 0.0, 0.0, 0.0
2, 10.0, 0.0, 0.0
3, 10.0, 2.0, 0.0
4, 0.0, 2.0, 0.0
5, 0.0, 0.0, 1.0
6, 10.0, 0.0, 1.0
7, 10.0, 2.0, 1.0
8, 0.0, 2.0, 1.0
9, 5.0, 0.0, 0.0
10, 10.0, 1.0, 0.0
11, 5.0, 2.0, 0.0
12, 0.0, 1.0, 0.0
13, 5.0, 0.0, 1.0
14, 10.0, 1.0, 1.0
15, 5.0, 2.0, 1.0
16, 0.0, 1.0, 1.0
17, 0.0, 0.0, 0.5
18, 10.0, 0.0, 0.5
19, 10.0, 2.0, 0.5
20, 0.0, 2.0, 0.5
** ... 4 like lines cut
**
*ELEMENT, TYPE=C3D8, ELSET=BEAM
1, 1, 9, 11, 4, 5, 13, 15, 8
2, 9, 2, 3, 11, 13, 6, 7, 15
**
*ELEMENT, TYPE=C3D20R, ELSET=REFINED_TIP
3, 2, 3, 7, 6, 18, 19, 14, 22, 10, 19, 14, 18, 22, 10, 3, 7, 6, 2, 18, 22
**
** ADDITIONAL NODES FOR CONTACT
**
*NODE, NSET=CONTACT_NODES
25, 10.0, 1.0, 0.0
26, 10.0, 1.0, 1.0
**
*NSET, NSET=FIXED_END
1, 4, 5, 8, 12, 16, 17, 20, 24
*NSET, NSET=FREE_END
2, 3, 6, 7, 10, 14, 18, 19, 22
*NSET, NSET=TIP_CENTER
10, 14, 22
**
*ELSET, ELSET=ALL_BEAM
BEAM, REFINED_TIP
**
*SURFACE, NAME=TOP_SURFACE, TYPE=ELEMENT
1, S3
2, S3
*SURFACE, NAME=BOTTOM_SURFACE, TYPE=ELEMENT
1, S1
2, S1
*SURFACE, NAME=TIP_SURFACE, TYPE=ELEMENT
2, S2
3, S2
**
** MATERIAL: Steel
**
*MATERIAL, NAME=STEEL_MILD
*ELASTIC
200000.0, 0.29
*PLASTIC
250.0, 0.0
300.0, 0.01
400.0, 0.05
500.0, 0.15
*DENSITY
7800.0
*DAMPING, ALPHA=0.01, BETA=0.0001
**
** MATERIAL: Concrete (for comparison)
**
*MATERIAL, NAME=CONCRETE
*ELASTIC
30000.0, 0.2
*CONCRETE
35.0, 0.0
40.0, 0.0001
*DENSITY
2400.0
**
** SECTIONS
**
*SOLID SECTION, ELSET=BEAM, MATERIAL=STEEL_MILD
1.0
*SOLID SECTION, ELSET=REFINED_TIP, MATERIAL=STEEL_MILD, CONTROLS=EC1
1.0
**
** SECTION CONTROLS
**
*SECTION CONTROLS, NAME=EC1, HOURGLASS=ENHANCED
**
** INITIAL CONDITIONS
**
*INITIAL CONDITIONS, TYPE=TEMPERATURE
ALL_BEAM, 20.0
*INITIAL CONDITIONS, TYPE=STRESS, USER
**
** AMPLITUDE
**
*AMPLITUDE, NAME=RAMP_LOAD
0.0, 0.0
0.5, 0.5
1.0, 1.0
**
*AMPLITUDE, NAME=CYCLIC_LOAD
0.0, 0.0
0.25, 1.0
0.5, 0.0
0.75, -1.0
1.0, 0.0
**
** BOUNDARY CONDITIONS
**
*BOUNDARY
FIXED_END, 1, 3
FIXED_END, ENCASTRE
**
** =====================================================================
** STEP 1: Static load application
** =====================================================================
**
*STEP, NAME=LOAD_STEP, NLGEOM=YES, INC=1000
Static analysis with geometric nonlinearity
*STATIC, STABILIZE=0.0002
0.01, 1.0, 1E-8, 0.1
**
** LOADS
**
*CLOAD, AMPLITUDE=RAMP_LOAD
TIP_CENTER, 2, -1000.0
**
*DLOAD
BEAM, GRAV, 9.81, 0.0, -1.0, 0.0
**
*DSLOAD
TOP_SURFACE, P, 50.0
**
** OUTPUTS
**
*OUTPUT, FIELD, VARIABLE=PRESELECT, FREQUENCY=10
*NODE OUTPUT
U, RF, CF
*ELEMENT OUTPUT, ELSET=ALL_BEAM
S, E, PE, PEEQ, EE, IE, THE
*CONTACT OUTPUT
CSTRESS, CDISP, CFORCE
**
*OUTPUT, HISTORY, FREQUENCY=1, TIME MARKS=YES
*NODE OUTPUT, NSET=TIP_CENTER
U1, U2, U3, RF1, RF2, RF3
*ENERGY OUTPUT
ALLKE, ALLSE, ALLWK, ALLFD, ALLAE
**
*NODE PRINT, NSET=FREE_END, SUMMARY=YES, TOTALS=YES
U
**
*EL PRINT, ELSET=BEAM, POSITION=AVERAGED AT NODES
S, E
**
*NODE FILE, GLOBAL=YES
U, RF
**
*EL FILE, POSITION=CENTROIDAL, ELSET=ALL_BEAM
S, E, PEEQ
**
*CONTACT FILE
CSTRESS, CFORCE
**
*END STEP
**
** =====================================================================
** STEP 2: Frequency analysis
** =====================================================================
**
*STEP, NAME=FREQUENCY_STEP, PERTURBATION
Natural frequency extraction
*FREQUENCY, EIGENSOLVER=LANCZOS
10, , , , ,
**
*OUTPUT, FIELD
*NODE OUTPUT
U
*ELEMENT OUTPUT
S
**
*NODE FILE
U
**
*EL FILE
S
**
*END STEP
**
** =====================================================================
** STEP 3: Unload
** =====================================================================
**
*STEP, NAME=UNLOAD_STEP, NLGEOM=YES
*STATIC
0.01, 1.0, 1E-8, 0.1
**
*CLOAD, OP=NEW
** (No loads - unload)
**
*DLOAD, OP=NEW
** (No distributed loads)
**
*BOUNDARY, OP=NEW
FIXED_END, 1, 3
**
*OUTPUT, FIELD, VARIABLE=PRESELECT
**
*OUTPUT, HISTORY, VARIABLE=PRESELECT
**
*NODE PRINT, NSET=TIP_CENTER
U, RF
**
*EL PRINT, ELSET=ALL_BEAM
S
**
*END STEP
