** =====================================================================
** ABAQUS Input File: Plate with Hole Under Tension
** =====================================================================
** This is a realistic example demonstrating:
** - Multiple materials
** - Multiple element types
** - Boundary conditions
** - Load steps
** - Output requests
** =====================================================================
*HEADING
Plate with central hole under uniaxial tension
**
** NODES
**
*NODE, NSET=ALLNODES
1, 0.0, 0.0, 0.0
2, 10.0, 0.0, 0.0
3, 10.0, 10.0, 0.0
4, 0.0, 10.0, 0.0
5, 5.0, 0.0, 0.0
6, 10.0, 5.0, 0.0
7, 5.0, 10.0, 0.0
8, 0.0, 5.0, 0.0
9, 5.0, 5.0, 0.0
10, 2.5, 2.5, 0.0
11, 7.5, 2.5, 0.0
12, 7.5, 7.5, 0.0
13, 2.5, 7.5, 0.0
**
** ELEMENTS - Shell elements for plate
**
*ELEMENT, TYPE=S4R, ELSET=PLATE
1, 1, 5, 9, 8
2, 5, 2, 6, 9
3, 9, 6, 3, 7
4, 8, 9, 7, 4
5, 1, 10, 9, 8
6, 5, 11, 9, 10
7, 9, 12, 7, 13
8, 8, 13, 4, 7
**
** ELEMENTS - Point mass at center
**
*ELEMENT, TYPE=MASS, ELSET=CENTER_MASS
100, 9
**
** NODE SETS
**
*NSET, NSET=LEFT_EDGE
1, 4, 8
*NSET, NSET=RIGHT_EDGE
2, 3, 6
*NSET, NSET=BOTTOM_EDGE
1, 2, 5
*NSET, NSET=TOP_EDGE
3, 4, 7
*NSET, NSET=CENTER
9
**
** ELEMENT SETS
**
*ELSET, ELSET=OUTER_ELEMENTS
1, 2, 3, 4
*ELSET, ELSET=INNER_ELEMENTS
5, 6, 7, 8
**
** SURFACES
**
*SURFACE, NAME=TOP_SURFACE, TYPE=ELEMENT
3, S1
4, S1
*SURFACE, NAME=BOTTOM_SURFACE, TYPE=ELEMENT
1, S1
2, S1
**
** MATERIALS
**
*MATERIAL, NAME=STEEL
*ELASTIC
210000.0, 0.3
*DENSITY
7850.0
*EXPANSION
1.2E-5
**
*MATERIAL, NAME=ALUMINUM
*ELASTIC
70000.0, 0.33
*PLASTIC
300.0, 0.0
350.0, 0.05
400.0, 0.15
*DENSITY
2700.0
**
** SECTION PROPERTIES
**
*SHELL SECTION, ELSET=OUTER_ELEMENTS, MATERIAL=STEEL
2.0, 5
*SHELL SECTION, ELSET=INNER_ELEMENTS, MATERIAL=ALUMINUM
1.5, 5
*MASS, ELSET=CENTER_MASS
10.0
**
** BOUNDARY CONDITIONS (Fixed)
**
*BOUNDARY
LEFT_EDGE, 1
BOTTOM_EDGE, 2
CENTER, 3
**
** STEP 1: Initial load
**
*STEP, NLGEOM=NO, INC=100
*STATIC
0.1, 1.0, 0.001, 0.1
**
*BOUNDARY
RIGHT_EDGE, 1, 1, 0.5
**
*CLOAD
TOP_EDGE, 2, 100.0
**
*DLOAD
OUTER_ELEMENTS, P, 10.0
**
*DSLOAD
TOP_SURFACE, P, 5.0
**
*OUTPUT, FIELD
*NODE OUTPUT
U, RF, CF
*ELEMENT OUTPUT
S, E, PE, PEEQ
**
*OUTPUT, HISTORY
*NODE OUTPUT, NSET=CENTER
U1, U2, U3
*ELEMENT OUTPUT, ELSET=INNER_ELEMENTS
S11, S22, S12
**
*NODE PRINT, NSET=RIGHT_EDGE, FREQUENCY=10
U, RF
**
*EL PRINT, ELSET=OUTER_ELEMENTS, FREQUENCY=5
S, E
**
*NODE FILE, FREQUENCY=1
U, RF
**
*EL FILE, FREQUENCY=1
S, E, PE
**
*END STEP
**
** STEP 2: Increased load
**
*STEP, NLGEOM=YES
*STATIC
0.05, 1.0, 0.0001, 0.05
**
*BOUNDARY, OP=NEW
LEFT_EDGE, 1
BOTTOM_EDGE, 2
RIGHT_EDGE, 1, 1, 1.0
**
*CLOAD, OP=MOD
TOP_EDGE, 2, 200.0
**
*DSLOAD
TOP_SURFACE, P, 10.0
**
*OUTPUT, FIELD, VARIABLE=PRESELECT
**
*OUTPUT, HISTORY, VARIABLE=PRESELECT
**
*NODE PRINT, NSET=CENTER
U, RF
**
*EL PRINT, ELSET=PLATE
S
**
*NODE FILE
U
**
*EL FILE
S, E
**
*END STEP
