*HEADING
: THREE BAR TRUSS  [T2D2]
*PREPRINT,ECHO=YES,HISTORY=NO,MODEL=NO
*NODE
4,10., 0.
1, 5.,10.
2,10.,10.
3,15.,10.
*ELEMENT,TYPE=T2D2, ELSET=EALL
1,4,1
2,4,2
3,4,3
*SOLID SECTION,MATERIAL=MAT, ELSET=EALL
.1, 
*MATERIAL,NAME=MAT
*ELASTIC
30.E6, 
*DENSITY
7.5E-4, 
*BOUNDARY
1,1,2
2,1,2
3,1,2
*STEP
*STATIC
*CLOAD
4,2,-10000.
*OUTPUT,FIELD
*ELEMENT OUTPUT
S,COORD,
*EL PRINT
 S,COORD,
*OUTPUT,FIELD
*NODE OUTPUT
U,COORD
*NODE PRINT
 U,COORD
*OUTPUT,HISTORY,FREQUENCY=1
*ENERGY OUTPUT,VARIABLE=PRESELECT
*END STEP
