*HEADING
Three bar truss test [T2D2]
Validation test of the 2d truss parsing in JuliaFEM
*PREPRINT,ECHO=YES,HISTORY=NO
*NODE
4, 5., 0.
1, 0.,10.
2, 5.,10.
3,10.,10.
*ELEMENT,TYPE=T2D2, ELSET=All_Elements
1,4,1
2,4,2
3,4,3
*SOLID SECTION,MATERIAL=Truss_mat, ELSET=All_Elements, SECTION=Truss_sect
.1, 
*MATERIAL,NAME=Truss_mat
*ELASTIC
30.E6, 0.3 
*BOUNDARY
1,1,2
2,1,2
3,1,2
*STEP
*STATIC
*CLOAD
4,2,-10000.
*OUTPUT,FIELD
*ELEMENT OUTPUT
S,COORD,
*EL PRINT
 S,COORD,
*OUTPUT,FIELD
*NODE OUTPUT
U,COORD
*NODE PRINT
 U,COORD
*OUTPUT,HISTORY,FREQUENCY=1
*END STEP
