** Example from ABAQUS Keywords Reference Manual
** Frequency extraction analysis
** Tests: STEP with FREQUENCY, eigenvalue analysis, multiple materials
*HEADING
Modal analysis of a simple structure
*NODE
1,  0.,  0.,  0.
2, 10.,  0.,  0.
3, 20.,  0.,  0.
4,  0., 10.,  0.
5, 10., 10.,  0.
6, 20., 10.,  0.
7,  0.,  0., 10.
8, 10.,  0., 10.
9, 20.,  0., 10.
10, 0., 10., 10.
11,10., 10., 10.
12,20., 10., 10.
*ELEMENT, TYPE=C3D8, ELSET=PART1
1, 1, 2, 5, 4, 7, 8, 11, 10
2, 2, 3, 6, 5, 8, 9, 12, 11
*NSET, NSET=SUPPORT
1, 4, 7, 10
*MATERIAL, NAME=ALUMINUM
*ELASTIC
70.0E9, 0.33
*DENSITY
2700.0
*SOLID SECTION, ELSET=PART1, MATERIAL=ALUMINUM
**
*STEP, NAME=MODAL_ANALYSIS
*FREQUENCY
10
*BOUNDARY
SUPPORT, 1, 3
*NODE FILE
U
*END STEP
