** Example from ABAQUS Keywords Reference Manual  
** Multi-material assembly with section controls
** Tests: Multiple materials, SECTION CONTROLS, INITIAL CONDITIONS
*HEADING
Multi-material structure with advanced features
*NODE
1,  0.,  0.,  0.
2,  5.,  0.,  0.
3, 10.,  0.,  0.
4,  0.,  5.,  0.
5,  5.,  5.,  0.
6, 10.,  5.,  0.
7,  0.,  0.,  5.
8,  5.,  0.,  5.
9, 10.,  0.,  5.
10, 0.,  5.,  5.
11, 5.,  5.,  5.
12,10.,  5.,  5.
*ELEMENT, TYPE=C3D8R, ELSET=ZONE_A
1, 1, 2, 5, 4, 7, 8, 11, 10
*ELEMENT, TYPE=C3D8R, ELSET=ZONE_B
2, 2, 3, 6, 5, 8, 9, 12, 11
*NSET, NSET=BOTTOM
1, 2, 3
*NSET, NSET=TOP
10, 11, 12
*ELSET, ELSET=ALL_ELEMENTS
ZONE_A, ZONE_B
*SURFACE, NAME=TOP_SURFACE, TYPE=ELEMENT
ZONE_A, S3
ZONE_B, S3
**
*MATERIAL, NAME=STEEL_HIGH_STRENGTH
*ELASTIC
210.0E9, 0.29
*PLASTIC
450.0E6, 0.0
550.0E6, 0.10
650.0E6, 0.25
*DENSITY
7850.0
*EXPANSION
12.0E-6
*DAMPING, ALPHA=0.05, BETA=0.001
**
*MATERIAL, NAME=ALUMINUM_ALLOY
*ELASTIC
72.0E9, 0.33
*PLASTIC
280.0E6, 0.0
320.0E6, 0.08
360.0E6, 0.20
*DENSITY
2770.0
*EXPANSION
23.0E-6
**
*SECTION CONTROLS, NAME=HOURGLASS_CONTROL, HOURGLASS=ENHANCED
*SOLID SECTION, ELSET=ZONE_A, MATERIAL=STEEL_HIGH_STRENGTH, CONTROLS=HOURGLASS_CONTROL
*SOLID SECTION, ELSET=ZONE_B, MATERIAL=ALUMINUM_ALLOY
**
*INITIAL CONDITIONS, TYPE=TEMPERATURE
ALL_ELEMENTS, 293.0
**
*AMPLITUDE, NAME=RAMP_UP
0.0, 0.0
0.5, 0.5
1.0, 1.0
**
*STEP, NAME=LOADING, NLGEOM=YES, INC=50
*STATIC
0.02, 1.0, 1.0E-10, 0.1
*BOUNDARY
BOTTOM, 1, 3
*DLOAD, AMPLITUDE=RAMP_UP
ZONE_A, P3, 5.0E6
ZONE_B, P3, 3.0E6
*OUTPUT, FIELD, FREQUENCY=5
*NODE OUTPUT
U, RF
*ELEMENT OUTPUT
S, E, PE, PEEQ
*OUTPUT, HISTORY, FREQUENCY=1
*NODE OUTPUT, NSET=TOP
U3, RF3
*ELEMENT OUTPUT, ELSET=ZONE_A
PEEQ
*END STEP
