** Example from ABAQUS Keywords Reference Manual
** Nonlinear analysis with plasticity
** Tests: PLASTIC material, NLGEOM, multiple steps
*HEADING
Nonlinear static analysis with plastic deformation
*NODE
1, 0.0, 0.0, 0.0
2, 1.0, 0.0, 0.0
3, 2.0, 0.0, 0.0
4, 0.0, 1.0, 0.0
5, 1.0, 1.0, 0.0
6, 2.0, 1.0, 0.0
*ELEMENT, TYPE=CPE4, ELSET=PLATE
1, 1, 2, 5, 4
2, 2, 3, 6, 5
*NSET, NSET=LEFT
1, 4
*NSET, NSET=RIGHT
3, 6
*MATERIAL, NAME=MILD_STEEL
*ELASTIC
210.0E9, 0.3
*PLASTIC
250.0E6, 0.0
300.0E6, 0.05
350.0E6, 0.15
400.0E6, 0.30
*DENSITY
7850.0
*SOLID SECTION, ELSET=PLATE, MATERIAL=MILD_STEEL
1.0
**
*STEP, NAME=LOAD_STEP_1, NLGEOM=YES, INC=100
*STATIC
0.01, 1.0, 1.0E-8, 0.1
*BOUNDARY
LEFT, 1, 2
*BOUNDARY
RIGHT, 1, 1, 0.5
*OUTPUT, FIELD
*ELEMENT OUTPUT
S, PE, PEEQ
*NODE OUTPUT
U
*OUTPUT, HISTORY
*ELEMENT OUTPUT, ELSET=PLATE
PEEQ
*END STEP
**
*STEP, NAME=UNLOAD, NLGEOM=YES
*STATIC
0.05, 1.0
*BOUNDARY, OP=NEW
LEFT, 1, 2
RIGHT, 1, 1, 0.0
*OUTPUT, FIELD
*ELEMENT OUTPUT
S, PE, PEEQ
*NODE OUTPUT
U
*END STEP
