** Example from ABAQUS Keywords Reference Manual
** Shell analysis with section properties
** Tests: SHELL SECTION, shell elements, composite layup
*HEADING
Shell structure analysis with section properties
*NODE
1,   0.0,   0.0, 0.0
2,  10.0,   0.0, 0.0
3,  20.0,   0.0, 0.0
4,  30.0,   0.0, 0.0
5,   0.0,  10.0, 0.0
6,  10.0,  10.0, 0.0
7,  20.0,  10.0, 0.0
8,  30.0,  10.0, 0.0
9,   0.0,  20.0, 0.0
10, 10.0,  20.0, 0.0
11, 20.0,  20.0, 0.0
12, 30.0,  20.0, 0.0
*ELEMENT, TYPE=S4R, ELSET=SHELL_PART
1, 1, 2, 6, 5
2, 2, 3, 7, 6
3, 3, 4, 8, 7
4, 5, 6, 10, 9
5, 6, 7, 11, 10
6, 7, 8, 12, 11
*NSET, NSET=EDGE1
1, 5, 9
*NSET, NSET=EDGE2
4, 8, 12
*ELSET, ELSET=REGION1
1, 2, 3
*ELSET, ELSET=REGION2
4, 5, 6
*MATERIAL, NAME=COMPOSITE
*ELASTIC
150.0E9, 0.25
*DENSITY
1600.0
*SHELL SECTION, ELSET=SHELL_PART, MATERIAL=COMPOSITE
2.5, 5
**
*STEP, NAME=PRESSURE_LOAD
*STATIC
1.0, 1.0
*BOUNDARY
EDGE1, 1, 6
*DLOAD
SHELL_PART, P, 10000.0
*NODE FILE
U
*EL FILE
S
*END STEP
