** Example from ABAQUS Analysis User's Manual
** Static stress analysis of a cantilever beam
** Tests: NODE, ELEMENT, NSET, ELSET, MATERIAL, ELASTIC, DENSITY,
**        SOLID SECTION, BOUNDARY, CLOAD, STEP, STATIC, OUTPUT
*HEADING
Static analysis of cantilever beam under point load
*NODE
1,  0.0,  0.0,  0.0
2,  1.0,  0.0,  0.0
3,  2.0,  0.0,  0.0
4,  3.0,  0.0,  0.0
5,  0.0,  1.0,  0.0
6,  1.0,  1.0,  0.0
7,  2.0,  1.0,  0.0
8,  3.0,  1.0,  0.0
9,  0.0,  0.0,  1.0
10, 1.0,  0.0,  1.0
11, 2.0,  0.0,  1.0
12, 3.0,  0.0,  1.0
13, 0.0,  1.0,  1.0
14, 1.0,  1.0,  1.0
15, 2.0,  1.0,  1.0
16, 3.0,  1.0,  1.0
*ELEMENT, TYPE=C3D8, ELSET=BEAM
1, 1, 2, 6, 5, 9, 10, 14, 13
2, 2, 3, 7, 6, 10, 11, 15, 14
3, 3, 4, 8, 7, 11, 12, 16, 15
*NSET, NSET=FIXED
1, 5, 9, 13
*NSET, NSET=LOAD
4, 8, 12, 16
*MATERIAL, NAME=STEEL
*ELASTIC
200.0E9, 0.3
*DENSITY
7800.0
*SOLID SECTION, ELSET=BEAM, MATERIAL=STEEL
*STEP, NAME=APPLY_LOAD
*STATIC
0.1, 1.0
*BOUNDARY
FIXED, 1, 3
*CLOAD
LOAD, 2, -1000.0
*NODE PRINT, NSET=LOAD
U, RF
*EL PRINT, ELSET=BEAM
S, E
*END STEP
